[General]
cmdenv-config-name = Test1
ned-path = ../../src;..

network = bmSim
sim-time-limit = 50s

cmdenv-express-mode = false

##############################################################################
#       Parameters for the entire simulation                                 #
##############################################################################
bmSim.playgroundSizeX = 120m
bmSim.playgroundSizeY = 120m
bmSim.playgroundSizeZ = 120m
# bmSim.numHosts = 1

**.coreDebug = false
##############################################################################
#       Parameters for the Host                                              #
##############################################################################

###############################################################################
#                 Configuration for Run 1                                     #
###############################################################################
[Config Test1]

bmSim.world.useTorus = false
bmSim.world.use2D = false
# bmSim.playgroundSizeZ = 120
bmSim.numHosts = 1

bmSim.node[0].mobility.initialX = 60m
bmSim.node[0].mobility.initialY = 60m
bmSim.node[0].mobility.initialZ = 60m
bmSim.node[0].borderPolicy = 1

bmSim.node[0].mobility.outX = 150m
bmSim.node[0].mobility.outY = 150m
bmSim.node[0].mobility.outZ = 150m

bmSim.node2[0].mobility.coreDebug = false
bmSim.node2[0].mobility.updateInterval = 0.5s
bmSim.node2[0].mobility.speed = 20.0mps
bmSim.node2[0].borderPolicy = 1


